network-area-diagram/src/test/resources/node-with-many-connections.xiidm
<?xml version="1.0" encoding="UTF-8"?>
<iidm:network xmlns:iidm="http://www.powsybl.org/schema/iidm/1_11" id="A" caseDate="2021-04-22T09:30:00.000+02:00" forecastDistance="0" sourceFormat="NF" minimumValidationLevel="STEADY_STATE_HYPOTHESIS">
    <iidm:substation id="B" country="FR" tso="C">
        <iidm:property name="paysCvg" value="FRANCE"/>
        <iidm:property name="regionCvg" value="NANTES"/>
        <iidm:voltageLevel id="D" nominalV="225.0" lowVoltageLimit="220.0" highVoltageLimit="245.00001525878906" topologyKind="BUS_BREAKER">
            <iidm:busBreakerTopology>
                <iidm:bus id="E" v="239.26870727539062" angle="-4.107585266839166"/>
            </iidm:busBreakerTopology>
            <iidm:load id="F" loadType="FICTITIOUS" p0="-19.661388397216797" q0="-17.078611373901367" bus="E" connectableBus="E" p="-19.661388397216797" q="-17.078611373901367"/>
            <iidm:load id="G" loadType="FICTITIOUS" p0="-19.509546279907227" q0="-17.228759765625" bus="E" connectableBus="E" p="-19.509546279907227" q="-17.228759765625"/>
            <iidm:load id="H" loadType="FICTITIOUS" p0="-19.449495315551758" q0="-20.32736587524414" bus="E" connectableBus="E" p="-19.449495315551758" q="-20.32736587524414"/>
            <iidm:load id="I" loadType="FICTITIOUS" p0="4.0713645284995437E-4" q0="-7.215676307678223" bus="E" connectableBus="E" p="4.0713645284995437E-4" q="-7.215676307678223"/>
            <iidm:load id="J" loadType="FICTITIOUS" p0="64.0965576171875" q0="16.31853485107422" bus="E" connectableBus="E" p="64.0965576171875" q="16.31853485107422"/>
            <iidm:load id="K" loadType="FICTITIOUS" p0="2.0431697368621826" q0="-5.95180606842041" bus="E" connectableBus="E" p="2.0431697368621826" q="-5.95180606842041"/>
            <iidm:load id="L" loadType="FICTITIOUS" p0="55.59402084350586" q0="39.61346435546875" bus="E" connectableBus="E" p="55.59402084350586" q="39.61346435546875"/>
            <iidm:load id="M" loadType="FICTITIOUS" p0="12.414176940917969" q0="20.445884704589844" bus="E" connectableBus="E" p="12.414176940917969" q="20.445884704589844"/>
            <iidm:load id="N" loadType="FICTITIOUS" p0="11.042854309082031" q0="-23.324689865112305" bus="E" connectableBus="E" p="11.042854309082031" q="-23.324689865112305"/>
            <iidm:load id="O" loadType="FICTITIOUS" p0="-93.35040283203125" q0="64.79044342041016" bus="E" connectableBus="E" p="-93.35040283203125" q="64.79044342041016"/>
        </iidm:voltageLevel>
    </iidm:substation>
    <iidm:substation id="P" country="FR" tso="C">
        <iidm:property name="paysCvg" value="FRANCE"/>
        <iidm:property name="regionCvg" value="PARIS"/>
        <iidm:voltageLevel id="Q" nominalV="225.0" lowVoltageLimit="220.0" highVoltageLimit="245.00001525878906" topologyKind="BUS_BREAKER">
            <iidm:busBreakerTopology>
                <iidm:bus id="R" v="243.04576110839844" angle="-10.376655613515151"/>
            </iidm:busBreakerTopology>
            <iidm:load id="S" loadType="FICTITIOUS" p0="8.506322046741843E-8" q0="-1.417710781097412" bus="R" connectableBus="R" p="8.506322046741843E-8" q="-1.417710781097412"/>
            <iidm:load id="T" loadType="FICTITIOUS" p0="0.0" q0="0.0" connectableBus="R" p="0.0" q="0.0"/>
            <iidm:load id="U" loadType="FICTITIOUS" p0="0.0" q0="0.0" connectableBus="R" p="0.0" q="0.0"/>
            <iidm:load id="V" loadType="FICTITIOUS" p0="84.63111877441406" q0="-28.709354400634766" bus="R" connectableBus="R" p="84.63111877441406" q="-28.709354400634766"/>
            <iidm:load id="W" loadType="FICTITIOUS" p0="3.4147524274885654E-7" q0="-1.8312101364135742" bus="R" connectableBus="R" p="3.4147524274885654E-7" q="-1.8312101364135742"/>
            <iidm:load id="X" loadType="FICTITIOUS" p0="-226.1750030517578" q0="51.307804107666016" bus="R" connectableBus="R" p="-226.1750030517578" q="51.307804107666016"/>
            <iidm:load id="Y" loadType="FICTITIOUS" p0="52.450096130371094" q0="-30.653654098510742" bus="R" connectableBus="R" p="52.450096130371094" q="-30.653654098510742"/>
            <iidm:load id="Z" loadType="FICTITIOUS" p0="209.37254333496094" q0="-51.418827056884766" bus="R" connectableBus="R" p="209.37254333496094" q="-51.418827056884766"/>
            <iidm:load id="AA" loadType="FICTITIOUS" p0="-226.16140747070312" q0="50.98908233642578" bus="R" connectableBus="R" p="-226.16140747070312" q="50.98908233642578"/>
            <iidm:load id="AB" loadType="FICTITIOUS" p0="41.093597412109375" q0="-10.80918025970459" bus="R" connectableBus="R" p="41.093597412109375" q="-10.80918025970459"/>
            <iidm:load id="AC" loadType="FICTITIOUS" p0="36.05879211425781" q0="10.669379234313965" bus="R" connectableBus="R" p="36.05879211425781" q="10.669379234313965"/>
            <iidm:shunt id="AD" sectionCount="0" voltageRegulatorOn="false" connectableBus="R" q="-0.0">
                <iidm:property name="qMax" value="-80"/>
                <iidm:property name="codeOI" value="ARRIG-MC361"/>
                <iidm:shuntLinearModel bPerSection="-0.0015802469570189714" maximumSectionCount="1"/>
            </iidm:shunt>
        </iidm:voltageLevel>
    </iidm:substation>
    <iidm:substation id="AE" country="FR" tso="C">
        <iidm:property name="paysCvg" value="FRANCE"/>
        <iidm:property name="regionCvg" value="PARIS"/>
        <iidm:voltageLevel id="AF" nominalV="380.0" lowVoltageLimit="390.0" highVoltageLimit="420.0000305175781" topologyKind="BUS_BREAKER">
            <iidm:busBreakerTopology>
                <iidm:bus id="AG" v="408.14300537109375" angle="-11.910766473745145"/>
            </iidm:busBreakerTopology>
        </iidm:voltageLevel>
        <iidm:voltageLevel id="AH" nominalV="380.0" lowVoltageLimit="390.0" highVoltageLimit="420.0000305175781" topologyKind="BUS_BREAKER">
            <iidm:busBreakerTopology>
                <iidm:bus id="AI" v="408.57305908203125" angle="-9.044130956448916"/>
            </iidm:busBreakerTopology>
        </iidm:voltageLevel>
        <iidm:voltageLevel id="AJ" nominalV="380.0" lowVoltageLimit="390.0" highVoltageLimit="420.0000305175781" topologyKind="BUS_BREAKER">
            <iidm:busBreakerTopology>
                <iidm:bus id="AK" v="410.9066467285156" angle="-12.310334247738183"/>
            </iidm:busBreakerTopology>
        </iidm:voltageLevel>
        <iidm:voltageLevel id="AL" nominalV="380.0" lowVoltageLimit="390.0" highVoltageLimit="420.0000305175781" topologyKind="BUS_BREAKER">
            <iidm:busBreakerTopology>
                <iidm:bus id="AM" v="412.4853210449219" angle="-12.756965440207194"/>
            </iidm:busBreakerTopology>
        </iidm:voltageLevel>
        <iidm:voltageLevel id="AN" nominalV="380.0" lowVoltageLimit="390.0" highVoltageLimit="420.0000305175781" topologyKind="BUS_BREAKER">
            <iidm:busBreakerTopology>
                <iidm:bus id="AO" v="407.8583984375" angle="-11.586598011773523"/>
            </iidm:busBreakerTopology>
        </iidm:voltageLevel>
        <iidm:voltageLevel id="AP" nominalV="20.0" lowVoltageLimit="19.0" highVoltageLimit="22.0" topologyKind="BUS_BREAKER">
            <iidm:busBreakerTopology>
                <iidm:bus id="AQ" v="21.481210708618164" angle="-11.910766473745145"/>
                <iidm:bus id="AR" v="20.42791175842285" angle="-12.249168196173427"/>
                <iidm:bus id="AS" v="20.549409866333008" angle="-12.693747770570495"/>
                <iidm:bus id="AT" v="21.466230392456055" angle="-11.586598011773523"/>
                <iidm:bus id="AU" v="21.503843307495117" angle="-9.044130956448916"/>
            </iidm:busBreakerTopology>
            <iidm:shunt id="AV" sectionCount="0" voltageRegulatorOn="false" connectableBus="AQ" q="-0.0">
                <iidm:property name="qMax" value="-64"/>
                <iidm:property name="codeOI" value="VLEJU-MC311"/>
                <iidm:shuntLinearModel bPerSection="-0.1599999964237213" maximumSectionCount="1"/>
            </iidm:shunt>
            <iidm:shunt id="AW" sectionCount="1" voltageRegulatorOn="false" bus="AR" connectableBus="AR" q="66.76793670654297">
                <iidm:property name="qMax" value="-64"/>
                <iidm:property name="codeOI" value="VLEJU-MC314"/>
                <iidm:shuntLinearModel bPerSection="-0.1599999964237213" maximumSectionCount="1"/>
            </iidm:shunt>
            <iidm:shunt id="AX" sectionCount="1" voltageRegulatorOn="false" bus="AS" connectableBus="AS" q="67.56451416015625">
                <iidm:property name="qMax" value="-64"/>
                <iidm:property name="codeOI" value="VLEJU-MC315"/>
                <iidm:shuntLinearModel bPerSection="-0.1599999964237213" maximumSectionCount="1"/>
            </iidm:shunt>
            <iidm:shunt id="AY" sectionCount="0" voltageRegulatorOn="false" connectableBus="AT" q="-0.0">
                <iidm:property name="qMax" value="-64"/>
                <iidm:property name="codeOI" value="VLEJU-MC316"/>
                <iidm:shuntLinearModel bPerSection="-0.1599999964237213" maximumSectionCount="1"/>
            </iidm:shunt>
            <iidm:shunt id="AZ" sectionCount="0" voltageRegulatorOn="false" connectableBus="AU" q="-0.0">
                <iidm:property name="qMax" value="-64"/>
                <iidm:property name="codeOI" value="VLEJU-MC313"/>
                <iidm:shuntLinearModel bPerSection="-0.1599999964237213" maximumSectionCount="1"/>
            </iidm:shunt>
        </iidm:voltageLevel>
        <iidm:voltageLevel id="BA" nominalV="90.0" lowVoltageLimit="85.0" highVoltageLimit="97.00000762939453" topologyKind="BUS_BREAKER">
            <iidm:busBreakerTopology>
                <iidm:bus id="BB" v="92.76220703125" angle="-11.633837307620624"/>
            </iidm:busBreakerTopology>
        </iidm:voltageLevel>
        <iidm:voltageLevel id="BC" nominalV="225.0" lowVoltageLimit="220.0" highVoltageLimit="245.00001525878906" topologyKind="BUS_BREAKER">
            <iidm:busBreakerTopology>
                <iidm:bus id="BD" v="241.15451049804688" angle="-11.039206161121191"/>
                <iidm:bus id="BE" v="241.52220153808594" angle="-8.514359286307924"/>
            </iidm:busBreakerTopology>
        </iidm:voltageLevel>
        <iidm:voltageLevel id="BF" nominalV="380.0" lowVoltageLimit="390.0" highVoltageLimit="420.0000305175781" topologyKind="BUS_BREAKER">
            <iidm:busBreakerTopology>
                <iidm:bus id="BG" v="406.2021179199219" angle="-6.623927702362121"/>
            </iidm:busBreakerTopology>
            <iidm:load id="BH" loadType="FICTITIOUS" p0="0.0" q0="0.0" connectableBus="BG" p="0.0" q="0.0"/>
            <iidm:load id="BI" loadType="FICTITIOUS" p0="-655.0126953125" q0="47.995521545410156" bus="BG" connectableBus="BG" p="-655.0126953125" q="47.995521545410156"/>
            <iidm:load id="BJ" loadType="FICTITIOUS" p0="-613.9805908203125" q0="68.1426010131836" bus="BG" connectableBus="BG" p="-613.9805908203125" q="68.1426010131836"/>
            <iidm:load id="BK" loadType="FICTITIOUS" p0="-499.0577087402344" q0="42.30215072631836" bus="BG" connectableBus="BG" p="-499.0577087402344" q="42.30215072631836"/>
            <iidm:load id="BL" loadType="FICTITIOUS" p0="332.18280029296875" q0="-83.64338684082031" bus="BG" connectableBus="BG" p="332.18280029296875" q="-83.64338684082031"/>
        </iidm:voltageLevel>
        <iidm:twoWindingsTransformer id="BM" r="4.920000076293945" x="136.3000030517578" g="0.0" b="0.0" ratedU1="20.0" ratedU2="380.0" bus1="AQ" connectableBus1="AQ" voltageLevelId1="AP" bus2="AG" connectableBus2="AG" voltageLevelId2="AF" p1="-7.105427357601002E-15" q1="0.0" p2="-7.105427357601002E-15" q2="0.0">
            <iidm:property name="codeOI" value="VLEJU-Y762"/>
            <iidm:ratioTapChanger lowTapPosition="0" tapPosition="0" loadTapChangingCapabilities="false">
                <iidm:step r="0.0" x="0.0" g="0.0" b="0.0" rho="1.0"/>
            </iidm:ratioTapChanger>
        </iidm:twoWindingsTransformer>
        <iidm:twoWindingsTransformer id="BN" r="0.3599998950958252" x="-7.90000057220459" g="0.0" b="0.0" ratedU1="225.0" ratedU2="380.0" bus1="BD" connectableBus1="BD" voltageLevelId1="BC" bus2="AG" connectableBus2="AG" voltageLevelId2="AF" p1="-321.3078918457031" q1="27.24977684020996" p2="321.5335693359375" q2="-32.20187759399414">
            <iidm:property name="codeOI" value="VLEJU-Y762"/>
            <iidm:ratioTapChanger lowTapPosition="0" tapPosition="0" loadTapChangingCapabilities="false">
                <iidm:step r="0.0" x="0.0" g="0.0" b="0.0" rho="1.0"/>
                <iidm:step r="0.0" x="0.0" g="0.0" b="0.0" rho="0.9589999914169312"/>
                <iidm:step r="0.0" x="0.0" g="0.0" b="0.0" rho="0.9169999957084656"/>
            </iidm:ratioTapChanger>
            <iidm:currentLimits1 permanentLimit="9999.0">
                <iidm:temporaryLimit name="N/A" value="1659.0"/>
                <iidm:temporaryLimit name="IT20" acceptableDuration="1200" value="2164.0"/>
                <iidm:temporaryLimit name="IT5" acceptableDuration="300" value="2885.0"/>
                <iidm:temporaryLimit name="IT1" acceptableDuration="60"/>
            </iidm:currentLimits1>
            <iidm:currentLimits2 permanentLimit="9999.0"/>
        </iidm:twoWindingsTransformer>
        <iidm:twoWindingsTransformer id="BO" r="0.09999999403953552" x="47.500003814697266" g="0.0" b="0.0" ratedU1="380.0" ratedU2="380.0" bus1="BG" connectableBus1="BG" voltageLevelId1="BF" bus2="AG" connectableBus2="AG" voltageLevelId2="AF" p1="321.59625244140625" q1="-2.4265904426574707" p2="-321.5335693359375" q2="32.20187759399414">
            <iidm:property name="codeOI" value="VLEJU-Y762"/>
            <iidm:ratioTapChanger lowTapPosition="0" tapPosition="0" loadTapChangingCapabilities="false">
                <iidm:step r="0.0" x="0.0" g="0.0" b="0.0" rho="1.0"/>
            </iidm:ratioTapChanger>
            <iidm:currentLimits1 permanentLimit="9999.0"/>
            <iidm:currentLimits2 permanentLimit="9999.0">
                <iidm:temporaryLimit name="N/A" value="1659.0001220703125"/>
                <iidm:temporaryLimit name="IT20" acceptableDuration="1200" value="2164.00048828125"/>
                <iidm:temporaryLimit name="IT5" acceptableDuration="300"/>
            </iidm:currentLimits2>
        </iidm:twoWindingsTransformer>
        <iidm:twoWindingsTransformer id="BP" r="2.7200002670288086" x="134.8000030517578" g="0.0" b="0.0" ratedU1="20.0" ratedU2="380.0" bus1="AU" connectableBus1="AU" voltageLevelId1="AP" bus2="AI" connectableBus2="AI" voltageLevelId2="AH" p1="-3.552713678800501E-15" q1="-2.2737367544323206E-13" p2="3.552713678800501E-15" q2="2.2737367544323206E-13">
            <iidm:property name="codeOI" value="VLEJU-Y763"/>
            <iidm:ratioTapChanger lowTapPosition="0" tapPosition="0" loadTapChangingCapabilities="false">
                <iidm:step r="0.0" x="0.0" g="0.0" b="0.0" rho="1.0"/>
            </iidm:ratioTapChanger>
        </iidm:twoWindingsTransformer>
        <iidm:twoWindingsTransformer id="BQ" r="0.17999963462352753" x="-11.100001335144043" g="0.0" b="0.0" ratedU1="225.0" ratedU2="380.0" bus1="BE" connectableBus1="BE" voltageLevelId1="BC" bus2="AI" connectableBus2="AI" voltageLevelId2="AH" p1="-139.17568969726562" q1="21.6803035736084" p2="139.1971435546875" q2="-23.00387191772461">
            <iidm:property name="codeOI" value="VLEJU-Y763"/>
            <iidm:ratioTapChanger lowTapPosition="0" tapPosition="0" loadTapChangingCapabilities="false">
                <iidm:step r="0.0" x="0.0" g="0.0" b="0.0" rho="1.0"/>
                <iidm:step r="0.0" x="0.0" g="0.0" b="0.0" rho="0.9589999914169312"/>
                <iidm:step r="0.0" x="0.0" g="0.0" b="0.0" rho="0.9169999957084656"/>
            </iidm:ratioTapChanger>
            <iidm:currentLimits1 permanentLimit="9999.0">
                <iidm:temporaryLimit name="N/A" value="1659.0"/>
                <iidm:temporaryLimit name="IT20" acceptableDuration="1200" value="2164.0"/>
                <iidm:temporaryLimit name="IT5" acceptableDuration="300" value="2885.0"/>
                <iidm:temporaryLimit name="IT1" acceptableDuration="60"/>
            </iidm:currentLimits1>
            <iidm:currentLimits2 permanentLimit="9999.0"/>
        </iidm:twoWindingsTransformer>
        <iidm:twoWindingsTransformer id="BR" r="0.28999993205070496" x="50.29998779296875" g="0.0" b="0.0" ratedU1="380.0" ratedU2="380.0" bus1="BG" connectableBus1="BG" voltageLevelId1="BF" bus2="AI" connectableBus2="AI" voltageLevelId2="AH" p1="139.2317352294922" q1="-17.00608253479004" p2="-139.1971435546875" q2="23.00387191772461">
            <iidm:property name="codeOI" value="VLEJU-Y763"/>
            <iidm:ratioTapChanger lowTapPosition="0" tapPosition="0" loadTapChangingCapabilities="false">
                <iidm:step r="0.0" x="0.0" g="0.0" b="0.0" rho="1.0"/>
            </iidm:ratioTapChanger>
            <iidm:currentLimits1 permanentLimit="9999.0"/>
            <iidm:currentLimits2 permanentLimit="9999.0">
                <iidm:temporaryLimit name="N/A" value="1659.0001220703125"/>
                <iidm:temporaryLimit name="IT20" acceptableDuration="1200" value="2164.00048828125"/>
                <iidm:temporaryLimit name="IT5" acceptableDuration="300"/>
            </iidm:currentLimits2>
        </iidm:twoWindingsTransformer>
        <iidm:twoWindingsTransformer id="BS" r="2.549999952316284" x="132.39999389648438" g="0.0" b="0.0" ratedU1="20.0" ratedU2="380.0" bus1="AR" connectableBus1="AR" voltageLevelId1="AP" bus2="AK" connectableBus2="AK" voltageLevelId2="AJ" p1="1.7763568394002505E-14" q1="-66.76793670654297" p2="0.07546071708202362" q2="70.68598175048828">
            <iidm:property name="codeOI" value="VLEJU-Y764"/>
            <iidm:ratioTapChanger lowTapPosition="0" tapPosition="0" loadTapChangingCapabilities="false">
                <iidm:step r="0.0" x="0.0" g="0.0" b="0.0" rho="1.0"/>
            </iidm:ratioTapChanger>
        </iidm:twoWindingsTransformer>
        <iidm:twoWindingsTransformer id="BT" r="0.2500000596046448" x="-11.399999618530273" g="0.0" b="0.0" ratedU1="225.0" ratedU2="380.0" bus1="BD" connectableBus1="BD" voltageLevelId1="BC" bus2="AK" connectableBus2="AK" voltageLevelId2="AJ" p1="-328.2627868652344" q1="118.64142608642578" p2="328.4464111328125" q2="-127.01428985595703">
            <iidm:property name="codeOI" value="VLEJU-Y764"/>
            <iidm:ratioTapChanger lowTapPosition="0" tapPosition="0" loadTapChangingCapabilities="false">
                <iidm:step r="0.0" x="0.0" g="0.0" b="0.0" rho="1.0"/>
                <iidm:step r="0.0" x="0.0" g="0.0" b="0.0" rho="0.9589999914169312"/>
                <iidm:step r="0.0" x="0.0" g="0.0" b="0.0" rho="0.9169999957084656"/>
            </iidm:ratioTapChanger>
            <iidm:currentLimits1 permanentLimit="9999.0">
                <iidm:temporaryLimit name="N/A" value="1659.0"/>
                <iidm:temporaryLimit name="IT20" acceptableDuration="1200" value="2164.0"/>
                <iidm:temporaryLimit name="IT5" acceptableDuration="300" value="2885.0"/>
                <iidm:temporaryLimit name="IT1" acceptableDuration="60"/>
            </iidm:currentLimits1>
            <iidm:currentLimits2 permanentLimit="9999.0"/>
        </iidm:twoWindingsTransformer>
        <iidm:twoWindingsTransformer id="BU" r="0.23999999463558197" x="50.29999923706055" g="0.0" b="0.0" ratedU1="380.0" ratedU2="380.0" bus1="BG" connectableBus1="BG" voltageLevelId1="BF" bus2="AK" connectableBus2="AK" voltageLevelId2="AJ" p1="328.6797790527344" q1="-23.230918884277344" p2="-328.5218505859375" q2="56.32830810546875">
            <iidm:property name="codeOI" value="VLEJU-Y764"/>
            <iidm:ratioTapChanger lowTapPosition="0" tapPosition="0" loadTapChangingCapabilities="false">
                <iidm:step r="0.0" x="0.0" g="0.0" b="0.0" rho="1.0"/>
            </iidm:ratioTapChanger>
            <iidm:currentLimits1 permanentLimit="9999.0"/>
            <iidm:currentLimits2 permanentLimit="9999.0">
                <iidm:temporaryLimit name="N/A" value="1659.0001220703125"/>
                <iidm:temporaryLimit name="IT20" acceptableDuration="1200" value="2164.00048828125"/>
                <iidm:temporaryLimit name="IT5" acceptableDuration="300"/>
            </iidm:currentLimits2>
        </iidm:twoWindingsTransformer>
        <iidm:twoWindingsTransformer id="BV" r="2.629999876022339" x="127.39998626708984" g="0.0" b="0.0" ratedU1="20.0" ratedU2="380.0" bus1="AS" connectableBus1="AS" voltageLevelId1="AP" bus2="AM" connectableBus2="AM" voltageLevelId2="AL" p1="-1.4210854715202004E-14" q1="-67.56451416015625" p2="0.07875663787126541" q2="71.37957000732422">
            <iidm:property name="codeOI" value="VLEJU-Y765"/>
            <iidm:ratioTapChanger lowTapPosition="0" tapPosition="0" loadTapChangingCapabilities="false">
                <iidm:step r="0.0" x="0.0" g="0.0" b="0.0" rho="1.0"/>
            </iidm:ratioTapChanger>
        </iidm:twoWindingsTransformer>
        <iidm:twoWindingsTransformer id="BW" r="0.19000087678432465" x="-15.799999237060547" g="0.0" b="0.0" ratedU1="225.0" ratedU2="380.0" bus1="BD" connectableBus1="BD" voltageLevelId1="BC" bus2="AM" connectableBus2="AM" voltageLevelId2="AL" p1="-320.2384033203125" q1="125.46768951416016" p2="320.3739013671875" q2="-136.73524475097656">
            <iidm:property name="codeOI" value="VLEJU-Y765"/>
            <iidm:ratioTapChanger lowTapPosition="0" tapPosition="0" loadTapChangingCapabilities="false">
                <iidm:step r="0.0" x="0.0" g="0.0" b="0.0" rho="1.0"/>
                <iidm:step r="0.0" x="0.0" g="0.0" b="0.0" rho="0.9589999914169312"/>
                <iidm:step r="0.0" x="0.0" g="0.0" b="0.0" rho="0.9169999957084656"/>
            </iidm:ratioTapChanger>
            <iidm:currentLimits1 permanentLimit="9999.0">
                <iidm:temporaryLimit name="N/A" value="1659.0"/>
                <iidm:temporaryLimit name="IT20" acceptableDuration="1200" value="2164.0"/>
                <iidm:temporaryLimit name="IT5" acceptableDuration="300" value="2885.0"/>
                <iidm:temporaryLimit name="IT1" acceptableDuration="60"/>
            </iidm:currentLimits1>
            <iidm:currentLimits2 permanentLimit="9999.0"/>
        </iidm:twoWindingsTransformer>
        <iidm:twoWindingsTransformer id="BX" r="0.2999999523162842" x="55.80000305175781" g="0.0" b="0.0" ratedU1="380.0" ratedU2="380.0" bus1="BG" connectableBus1="BG" voltageLevelId1="BF" bus2="AM" connectableBus2="AM" voltageLevelId2="AL" p1="320.6412658691406" q1="-30.276947021484375" p2="-320.4526672363281" q2="65.35566711425781">
            <iidm:property name="codeOI" value="VLEJU-Y765"/>
            <iidm:ratioTapChanger lowTapPosition="0" tapPosition="0" loadTapChangingCapabilities="false">
                <iidm:step r="0.0" x="0.0" g="0.0" b="0.0" rho="1.0"/>
            </iidm:ratioTapChanger>
            <iidm:currentLimits1 permanentLimit="9999.0"/>
            <iidm:currentLimits2 permanentLimit="9999.0">
                <iidm:temporaryLimit name="N/A" value="1659.0001220703125"/>
                <iidm:temporaryLimit name="IT20" acceptableDuration="1200" value="2164.00048828125"/>
                <iidm:temporaryLimit name="IT5" acceptableDuration="300"/>
            </iidm:currentLimits2>
        </iidm:twoWindingsTransformer>
        <iidm:twoWindingsTransformer id="BY" r="4.850000381469727" x="144.1999969482422" g="0.0" b="0.0" ratedU1="20.0" ratedU2="380.0" bus1="AT" connectableBus1="AT" voltageLevelId1="AP" bus2="AO" connectableBus2="AO" voltageLevelId2="AN" p1="0.0" q1="0.0" p2="0.0" q2="0.0">
            <iidm:property name="codeOI" value="VLEJU-Y766"/>
            <iidm:ratioTapChanger lowTapPosition="0" tapPosition="0" loadTapChangingCapabilities="false">
                <iidm:step r="0.0" x="0.0" g="0.0" b="0.0" rho="1.0"/>
            </iidm:ratioTapChanger>
        </iidm:twoWindingsTransformer>
        <iidm:twoWindingsTransformer id="BZ" r="0.28999942541122437" x="-4.899999618530273" g="0.0" b="0.0" ratedU1="225.0" ratedU2="380.0" bus1="BD" connectableBus1="BD" voltageLevelId1="BC" bus2="AO" connectableBus2="AO" voltageLevelId2="AN" p1="-325.4735107421875" q1="26.997961044311523" p2="325.6600036621094" q2="-30.148700714111328">
            <iidm:property name="codeOI" value="VLEJU-Y766"/>
            <iidm:ratioTapChanger lowTapPosition="0" tapPosition="0" loadTapChangingCapabilities="false">
                <iidm:step r="0.0" x="0.0" g="0.0" b="0.0" rho="1.0"/>
                <iidm:step r="0.0" x="0.0" g="0.0" b="0.0" rho="0.9589999914169312"/>
                <iidm:step r="0.0" x="0.0" g="0.0" b="0.0" rho="0.9169999957084656"/>
            </iidm:ratioTapChanger>
            <iidm:currentLimits1 permanentLimit="9999.0">
                <iidm:temporaryLimit name="N/A" value="1659.0"/>
                <iidm:temporaryLimit name="IT20" acceptableDuration="1200" value="2164.0"/>
                <iidm:temporaryLimit name="IT5" acceptableDuration="300" value="2885.0"/>
                <iidm:temporaryLimit name="IT1" acceptableDuration="60"/>
            </iidm:currentLimits1>
            <iidm:currentLimits2 permanentLimit="9999.0"/>
        </iidm:twoWindingsTransformer>
        <iidm:twoWindingsTransformer id="CA" r="0.09199998527765274" x="44.0" g="0.0" b="0.0" ratedU1="380.0" ratedU2="380.0" bus1="BG" connectableBus1="BG" voltageLevelId1="BF" bus2="AO" connectableBus2="AO" voltageLevelId2="AN" p1="325.7191467285156" q1="-1.856350064277649" p2="-325.6600036621094" q2="30.148700714111328">
            <iidm:property name="codeOI" value="VLEJU-Y766"/>
            <iidm:ratioTapChanger lowTapPosition="0" tapPosition="0" loadTapChangingCapabilities="false">
                <iidm:step r="0.0" x="0.0" g="0.0" b="0.0" rho="1.0"/>
            </iidm:ratioTapChanger>
            <iidm:currentLimits1 permanentLimit="9999.0"/>
            <iidm:currentLimits2 permanentLimit="9999.0">
                <iidm:temporaryLimit name="N/A" value="1659.0001220703125"/>
                <iidm:temporaryLimit name="IT20" acceptableDuration="1200" value="2164.00048828125"/>
                <iidm:temporaryLimit name="IT5" acceptableDuration="300"/>
            </iidm:currentLimits2>
        </iidm:twoWindingsTransformer>
        <iidm:twoWindingsTransformer id="CB" r="1.600000023841858" x="58.29999923706055" g="0.0" b="0.0" ratedU1="90.0" ratedU2="225.0" connectableBus1="BB" voltageLevelId1="BA" connectableBus2="BD" voltageLevelId2="BC" p1="0.0" q1="0.0" p2="0.0" q2="0.0">
            <iidm:property name="codeOI" value="VLEJU-Y641"/>
            <iidm:ratioTapChanger lowTapPosition="0" tapPosition="14" loadTapChangingCapabilities="true" regulating="false">
                <iidm:terminalRef id="CB" side="ONE"/>
                <iidm:step r="0.0" x="0.0" g="0.0" b="0.0" rho="1.0529999732971191"/>
                <iidm:step r="0.0" x="0.0" g="0.0" b="0.0" rho="1.0440000295639038"/>
                <iidm:step r="0.0" x="0.0" g="0.0" b="0.0" rho="1.034999966621399"/>
                <iidm:step r="0.0" x="0.0" g="0.0" b="0.0" rho="1.0260000228881836"/>
                <iidm:step r="0.0" x="0.0" g="0.0" b="0.0" rho="1.0169999599456787"/>
                <iidm:step r="0.0" x="0.0" g="0.0" b="0.0" rho="1.0069999694824219"/>
                <iidm:step r="0.0" x="0.0" g="0.0" b="0.0" rho="0.9980000257492065"/>
                <iidm:step r="0.0" x="0.0" g="0.0" b="0.0" rho="0.9890000224113464"/>
                <iidm:step r="0.0" x="0.0" g="0.0" b="0.0" rho="0.9800000190734863"/>
                <iidm:step r="0.0" x="0.0" g="0.0" b="0.0" rho="0.9710000157356262"/>
                <iidm:step r="0.0" x="0.0" g="0.0" b="0.0" rho="0.9620000123977661"/>
                <iidm:step r="0.0" x="0.0" g="0.0" b="0.0" rho="0.953000009059906"/>
                <iidm:step r="0.0" x="0.0" g="0.0" b="0.0" rho="0.9430000185966492"/>
                <iidm:step r="0.0" x="0.0" g="0.0" b="0.0" rho="0.9340000152587891"/>
                <iidm:step r="0.0" x="0.0" g="0.0" b="0.0" rho="0.925000011920929"/>
                <iidm:step r="0.0" x="0.0" g="0.0" b="0.0" rho="0.9160000085830688"/>
                <iidm:step r="0.0" x="0.0" g="0.0" b="0.0" rho="0.9070000052452087"/>
                <iidm:step r="0.0" x="0.0" g="0.0" b="0.0" rho="0.8970000147819519"/>
                <iidm:step r="0.0" x="0.0" g="0.0" b="0.0" rho="0.8880000114440918"/>
                <iidm:step r="0.0" x="0.0" g="0.0" b="0.0" rho="0.8790000081062317"/>
                <iidm:step r="0.0" x="0.0" g="0.0" b="0.0" rho="0.8700000047683716"/>
                <iidm:step r="0.0" x="0.0" g="0.0" b="0.0" rho="0.8610000014305115"/>
                <iidm:step r="0.0" x="0.0" g="0.0" b="0.0" rho="0.8519999980926514"/>
                <iidm:step r="0.0" x="0.0" g="0.0" b="0.0" rho="0.8429999947547913"/>
                <iidm:step r="0.0" x="0.0" g="0.0" b="0.0" rho="0.8339999914169312"/>
                <iidm:step r="0.0" x="0.0" g="0.0" b="0.0" rho="0.8240000009536743"/>
                <iidm:step r="0.0" x="0.0" g="0.0" b="0.0" rho="0.8149999976158142"/>
                <iidm:step r="0.0" x="0.0" g="0.0" b="0.0" rho="0.8059999942779541"/>
                <iidm:step r="0.0" x="0.0" g="0.0" b="0.0" rho="0.796999990940094"/>
                <iidm:step r="0.0" x="0.0" g="0.0" b="0.0" rho="0.7879999876022339"/>
                <iidm:step r="0.0" x="0.0" g="0.0" b="0.0" rho="0.777999997138977"/>
            </iidm:ratioTapChanger>
            <iidm:currentLimits1 permanentLimit="9999.0">
                <iidm:temporaryLimit name="N/A" value="691.0000610351562"/>
                <iidm:temporaryLimit name="IT20" acceptableDuration="1200" value="901.0000610351562"/>
                <iidm:temporaryLimit name="IT5" acceptableDuration="300" value="1201.0001220703125"/>
                <iidm:temporaryLimit name="IT1" acceptableDuration="60"/>
            </iidm:currentLimits1>
            <iidm:currentLimits2 permanentLimit="9999.0"/>
        </iidm:twoWindingsTransformer>
        <iidm:twoWindingsTransformer id="CC" r="1.8200002908706665" x="61.19999694824219" g="0.0" b="0.0" ratedU1="90.0" ratedU2="225.0" bus1="BB" connectableBus1="BB" voltageLevelId1="BA" bus2="BE" connectableBus2="BE" voltageLevelId2="BC" p1="-51.63435745239258" q1="-2.9437594413757324" p2="51.71885681152344" q2="5.785179138183594">
            <iidm:property name="codeOI" value="VLEJU-Y642"/>
            <iidm:ratioTapChanger lowTapPosition="0" tapPosition="2" targetDeadband="0.0" loadTapChangingCapabilities="true" regulating="true" targetV="92.76309967041016">
                <iidm:terminalRef id="CC" side="ONE"/>
                <iidm:step r="0.0" x="0.0" g="0.0" b="0.0" rho="1.0529999732971191"/>
                <iidm:step r="0.0" x="0.0" g="0.0" b="0.0" rho="1.0440000295639038"/>
                <iidm:step r="0.0" x="0.0" g="0.0" b="0.0" rho="1.034999966621399"/>
                <iidm:step r="0.0" x="0.0" g="0.0" b="0.0" rho="1.0260000228881836"/>
                <iidm:step r="0.0" x="0.0" g="0.0" b="0.0" rho="1.0169999599456787"/>
                <iidm:step r="0.0" x="0.0" g="0.0" b="0.0" rho="1.0069999694824219"/>
                <iidm:step r="0.0" x="0.0" g="0.0" b="0.0" rho="0.9980000257492065"/>
                <iidm:step r="0.0" x="0.0" g="0.0" b="0.0" rho="0.9890000224113464"/>
                <iidm:step r="0.0" x="0.0" g="0.0" b="0.0" rho="0.9800000190734863"/>
                <iidm:step r="0.0" x="0.0" g="0.0" b="0.0" rho="0.9710000157356262"/>
                <iidm:step r="0.0" x="0.0" g="0.0" b="0.0" rho="0.9620000123977661"/>
                <iidm:step r="0.0" x="0.0" g="0.0" b="0.0" rho="0.953000009059906"/>
                <iidm:step r="0.0" x="0.0" g="0.0" b="0.0" rho="0.9430000185966492"/>
                <iidm:step r="0.0" x="0.0" g="0.0" b="0.0" rho="0.9340000152587891"/>
                <iidm:step r="0.0" x="0.0" g="0.0" b="0.0" rho="0.925000011920929"/>
                <iidm:step r="0.0" x="0.0" g="0.0" b="0.0" rho="0.9160000085830688"/>
                <iidm:step r="0.0" x="0.0" g="0.0" b="0.0" rho="0.9070000052452087"/>
                <iidm:step r="0.0" x="0.0" g="0.0" b="0.0" rho="0.8970000147819519"/>
                <iidm:step r="0.0" x="0.0" g="0.0" b="0.0" rho="0.8880000114440918"/>
                <iidm:step r="0.0" x="0.0" g="0.0" b="0.0" rho="0.8790000081062317"/>
                <iidm:step r="0.0" x="0.0" g="0.0" b="0.0" rho="0.8700000047683716"/>
                <iidm:step r="0.0" x="0.0" g="0.0" b="0.0" rho="0.8610000014305115"/>
                <iidm:step r="0.0" x="0.0" g="0.0" b="0.0" rho="0.8519999980926514"/>
                <iidm:step r="0.0" x="0.0" g="0.0" b="0.0" rho="0.8429999947547913"/>
                <iidm:step r="0.0" x="0.0" g="0.0" b="0.0" rho="0.8339999914169312"/>
                <iidm:step r="0.0" x="0.0" g="0.0" b="0.0" rho="0.8240000009536743"/>
                <iidm:step r="0.0" x="0.0" g="0.0" b="0.0" rho="0.8149999976158142"/>
                <iidm:step r="0.0" x="0.0" g="0.0" b="0.0" rho="0.8059999942779541"/>
                <iidm:step r="0.0" x="0.0" g="0.0" b="0.0" rho="0.796999990940094"/>
                <iidm:step r="0.0" x="0.0" g="0.0" b="0.0" rho="0.7879999876022339"/>
                <iidm:step r="0.0" x="0.0" g="0.0" b="0.0" rho="0.777999997138977"/>
            </iidm:ratioTapChanger>
            <iidm:currentLimits1 permanentLimit="9999.0">
                <iidm:temporaryLimit name="N/A" value="713.0000610351562"/>
                <iidm:temporaryLimit name="IT20" acceptableDuration="1200" value="930.0001220703125"/>
                <iidm:temporaryLimit name="IT5" acceptableDuration="300" value="1240.0"/>
                <iidm:temporaryLimit name="IT1" acceptableDuration="60"/>
            </iidm:currentLimits1>
            <iidm:currentLimits2 permanentLimit="9999.0"/>
        </iidm:twoWindingsTransformer>
    </iidm:substation>
    <iidm:substation id="CD" country="FR" tso="C">
        <iidm:property name="paysCvg" value="FRANCE"/>
        <iidm:property name="regionCvg" value="PARIS"/>
        <iidm:voltageLevel id="CE" nominalV="225.0" lowVoltageLimit="220.0" highVoltageLimit="245.00001525878906" topologyKind="BUS_BREAKER">
            <iidm:busBreakerTopology>
                <iidm:bus id="CF" v="241.53543090820312" angle="-11.782844714553622"/>
            </iidm:busBreakerTopology>
            <iidm:load id="CG" loadType="FICTITIOUS" p0="57.01490020751953" q0="-12.861224174499512" bus="CF" connectableBus="CF" p="57.01490020751953" q="-12.861224174499512"/>
            <iidm:load id="CH" loadType="FICTITIOUS" p0="72.40575408935547" q0="-34.02471160888672" bus="CF" connectableBus="CF" p="72.40575408935547" q="-34.02471160888672"/>
            <iidm:load id="CI" loadType="FICTITIOUS" p0="36.763031005859375" q0="-3.971973419189453" bus="CF" connectableBus="CF" p="36.763031005859375" q="-3.971973419189453"/>
            <iidm:load id="CJ" loadType="FICTITIOUS" p0="0.0" q0="0.0" connectableBus="CF" p="0.0" q="0.0"/>
            <iidm:load id="CK" loadType="FICTITIOUS" p0="42.239864349365234" q0="39.91910934448242" bus="CF" connectableBus="CF" p="42.239864349365234" q="39.91910934448242"/>
            <iidm:load id="CL" loadType="FICTITIOUS" p0="35.540653228759766" q0="31.978515625" bus="CF" connectableBus="CF" p="35.540653228759766" q="31.978515625"/>
        </iidm:voltageLevel>
    </iidm:substation>
    <iidm:substation id="CM" country="FR" tso="C">
        <iidm:property name="paysCvg" value="FRANCE"/>
        <iidm:property name="regionCvg" value="PARIS"/>
        <iidm:voltageLevel id="CN" nominalV="225.0" lowVoltageLimit="220.0" highVoltageLimit="245.00001525878906" topologyKind="BUS_BREAKER">
            <iidm:busBreakerTopology>
                <iidm:bus id="CO" v="241.41180419921875" angle="-11.973829610351872"/>
            </iidm:busBreakerTopology>
            <iidm:generator id="CP" energySource="SOLAR" minP="0.0" maxP="0.20000000298023224" voltageRegulatorOn="false" targetP="0.0926700010895729" targetV="0.0" targetQ="0.0" bus="CO" connectableBus="CO" p="-0.0926700010895729" q="-0.0">
                <iidm:property name="genreCvg" value="PHOTOVOLTAIQUE"/>
                <iidm:property name="codeOI" value="BERT5INF"/>
                <iidm:reactiveCapabilityCurve>
                    <iidm:point p="0.0" minQ="0.0" maxQ="0.0"/>
                    <iidm:point p="0.20000000298023224" minQ="0.0" maxQ="0.0"/>
                </iidm:reactiveCapabilityCurve>
            </iidm:generator>
            <iidm:generator id="CQ" energySource="SOLAR" minP="0.0" maxP="0.20000000298023224" voltageRegulatorOn="false" targetP="0.0926700010895729" targetV="0.0" targetQ="0.0" bus="CO" connectableBus="CO" p="-0.0926700010895729" q="-0.0">
                <iidm:property name="genreCvg" value="PHOTOVOLTAIQUE"/>
                <iidm:property name="codeOI" value="BERT5ING"/>
                <iidm:reactiveCapabilityCurve>
                    <iidm:point p="0.0" minQ="0.0" maxQ="0.0"/>
                    <iidm:point p="0.20000000298023224" minQ="0.0" maxQ="0.0"/>
                </iidm:reactiveCapabilityCurve>
            </iidm:generator>
            <iidm:load id="CR" loadType="UNDEFINED" p0="27.1412410736084" q0="5.237479209899902" bus="CO" connectableBus="CO" p="27.1412410736084" q="5.237479209899902">
                <iidm:property name="VECTCodeOITransfoDistrib" value="AULNA-Y411"/>
                <iidm:property name="codeOI" value="BERT5-Y611"/>
            </iidm:load>
            <iidm:load id="CS" loadType="UNDEFINED" p0="18.746856689453125" q0="2.618739604949951" bus="CO" connectableBus="CO" p="18.746856689453125" q="2.618739604949951">
                <iidm:property name="VECTCodeOITransfoDistrib" value="AULNA-Y413"/>
                <iidm:property name="codeOI" value="BERT5-Y612"/>
            </iidm:load>
            <iidm:load id="CT" loadType="UNDEFINED" p0="20.51960563659668" q0="2.618739604949951" bus="CO" connectableBus="CO" p="20.51960563659668" q="2.618739604949951">
                <iidm:property name="codeOI" value="BERT5-Y613"/>
            </iidm:load>
            <iidm:load id="CU" loadType="FICTITIOUS" p0="37.205570220947266" q0="-5.641612529754639" bus="CO" connectableBus="CO" p="37.205570220947266" q="-5.641612529754639"/>
        </iidm:voltageLevel>
    </iidm:substation>
    <iidm:substation id="CV" country="FR" tso="C">
        <iidm:property name="paysCvg" value="FRANCE"/>
        <iidm:property name="regionCvg" value="PARIS"/>
        <iidm:voltageLevel id="CW" nominalV="225.0" lowVoltageLimit="220.0" highVoltageLimit="245.00001525878906" topologyKind="BUS_BREAKER">
            <iidm:busBreakerTopology>
                <iidm:bus id="CX" v="240.24993896484375" angle="-4.2835134374989465"/>
                <iidm:bus id="CY"/>
            </iidm:busBreakerTopology>
            <iidm:load id="CZ" loadType="UNDEFINED" p0="3.92829966545105" q0="1.4167001247406006" bus="CX" connectableBus="CX" p="3.92829966545105" q="1.4167001247406006">
                <iidm:property name="codeOI" value="CARR5-Y611"/>
            </iidm:load>
            <iidm:load id="DA" loadType="UNDEFINED" p0="0.0" q0="0.0" bus="CY" connectableBus="CY" p="0.0" q="0.0">
                <iidm:property name="codeOI" value="CARR5-Y612"/>
            </iidm:load>
        </iidm:voltageLevel>
    </iidm:substation>
    <iidm:substation id="DB" country="FR" tso="C">
        <iidm:property name="paysCvg" value="FRANCE"/>
        <iidm:property name="regionCvg" value="PARIS"/>
        <iidm:voltageLevel id="DC" nominalV="225.0" lowVoltageLimit="220.0" highVoltageLimit="245.00001525878906" topologyKind="BUS_BREAKER">
            <iidm:busBreakerTopology>
                <iidm:bus id="DD" v="241.55491638183594" angle="-11.800154121457727"/>
                <iidm:bus id="DE" v="241.53570556640625" angle="-11.840101336592193"/>
            </iidm:busBreakerTopology>
            <iidm:load id="DF" loadType="UNDEFINED" p0="22.758773803710938" q0="-0.6449920535087585" bus="DD" connectableBus="DD" p="22.758773803710938" q="-0.6449920535087585">
                <iidm:property name="codeOI" value="CASTA-Y611"/>
            </iidm:load>
            <iidm:load id="DG" loadType="UNDEFINED" p0="30.57402229309082" q0="2.7707953453063965" bus="DE" connectableBus="DE" p="30.57402229309082" q="2.7707953453063965">
                <iidm:property name="codeOI" value="CASTA-Y612"/>
            </iidm:load>
            <iidm:load id="DH" loadType="FICTITIOUS" p0="71.16793823242188" q0="-3.9512991905212402" bus="DE" connectableBus="DE" p="71.16793823242188" q="-3.9512991905212402"/>
        </iidm:voltageLevel>
    </iidm:substation>
    <iidm:substation id="DI" country="FR" tso="C">
        <iidm:property name="paysCvg" value="FRANCE"/>
        <iidm:property name="regionCvg" value="PARIS"/>
        <iidm:voltageLevel id="DJ" nominalV="90.0" lowVoltageLimit="85.0" highVoltageLimit="97.00000762939453" topologyKind="BUS_BREAKER">
            <iidm:busBreakerTopology>
                <iidm:bus id="DK" v="92.57825469970703" angle="-11.84302892642519"/>
            </iidm:busBreakerTopology>
            <iidm:generator id="DL" energySource="SOLAR" minP="0.0" maxP="0.30000001192092896" voltageRegulatorOn="false" targetP="0.13900499045848846" targetV="0.0" targetQ="0.0" bus="DK" connectableBus="DK" p="-0.13900499045848846" q="-0.0">
                <iidm:property name="genreCvg" value="PHOTOVOLTAIQUE"/>
                <iidm:property name="codeOI" value="CHARTINF"/>
                <iidm:reactiveCapabilityCurve>
                    <iidm:point p="0.0" minQ="0.0" maxQ="0.0"/>
                    <iidm:point p="0.30000001192092896" minQ="0.0" maxQ="0.0"/>
                </iidm:reactiveCapabilityCurve>
            </iidm:generator>
            <iidm:generator id="DM" energySource="SOLAR" minP="0.0" maxP="0.30000001192092896" voltageRegulatorOn="false" targetP="0.13900499045848846" targetV="0.0" targetQ="0.0" bus="DK" connectableBus="DK" p="-0.13900499045848846" q="-0.0">
                <iidm:property name="genreCvg" value="PHOTOVOLTAIQUE"/>
                <iidm:property name="codeOI" value="CHARTING"/>
                <iidm:reactiveCapabilityCurve>
                    <iidm:point p="0.0" minQ="0.0" maxQ="0.0"/>
                    <iidm:point p="0.30000001192092896" minQ="0.0" maxQ="0.0"/>
                </iidm:reactiveCapabilityCurve>
            </iidm:generator>
            <iidm:load id="DN" loadType="UNDEFINED" p0="10.466022491455078" q0="-0.22368815541267395" bus="DK" connectableBus="DK" p="10.466022491455078" q="-0.22368815541267395">
                <iidm:property name="codeOI" value="CHART-Y411"/>
            </iidm:load>
            <iidm:load id="DO" loadType="UNDEFINED" p0="10.466022491455078" q0="-0.22368815541267395" bus="DK" connectableBus="DK" p="10.466022491455078" q="-0.22368815541267395">
                <iidm:property name="codeOI" value="CHART-Y412"/>
            </iidm:load>
            <iidm:load id="DP" loadType="UNDEFINED" p0="10.327017784118652" q0="-0.22368815541267395" bus="DK" connectableBus="DK" p="10.327017784118652" q="-0.22368815541267395">
                <iidm:property name="codeOI" value="CHART-Y413"/>
            </iidm:load>
            <iidm:load id="DQ" loadType="FICTITIOUS" p0="-9.746831893920898" q0="4.29171895980835" bus="DK" connectableBus="DK" p="-9.746831893920898" q="4.29171895980835"/>
        </iidm:voltageLevel>
    </iidm:substation>
    <iidm:substation id="DR" country="FR" tso="C">
        <iidm:property name="paysCvg" value="FRANCE"/>
        <iidm:property name="regionCvg" value="PARIS"/>
        <iidm:voltageLevel id="DS" nominalV="225.0" lowVoltageLimit="220.0" highVoltageLimit="245.00001525878906" topologyKind="BUS_BREAKER">
            <iidm:busBreakerTopology>
                <iidm:bus id="DT" v="241.3998565673828" angle="-11.717163907947487"/>
                <iidm:bus id="DU" v="241.3608856201172" angle="-11.295166646493772"/>
            </iidm:busBreakerTopology>
            <iidm:generator id="DV" energySource="SOLAR" minP="0.0" maxP="0.30000001192092896" voltageRegulatorOn="false" targetP="0.13900499045848846" targetV="0.0" targetQ="0.0" bus="DT" connectableBus="DT" p="-0.13900499045848846" q="-0.0">
                <iidm:property name="genreCvg" value="PHOTOVOLTAIQUE"/>
                <iidm:property name="codeOI" value="CHATIINF"/>
                <iidm:reactiveCapabilityCurve>
                    <iidm:point p="0.0" minQ="0.0" maxQ="0.0"/>
                    <iidm:point p="0.30000001192092896" minQ="0.0" maxQ="0.0"/>
                </iidm:reactiveCapabilityCurve>
            </iidm:generator>
            <iidm:generator id="DW" energySource="SOLAR" minP="0.0" maxP="0.30000001192092896" voltageRegulatorOn="false" targetP="0.13900499045848846" targetV="0.0" targetQ="0.0" bus="DT" connectableBus="DT" p="-0.13900499045848846" q="-0.0">
                <iidm:property name="genreCvg" value="PHOTOVOLTAIQUE"/>
                <iidm:property name="codeOI" value="CHATIING"/>
                <iidm:reactiveCapabilityCurve>
                    <iidm:point p="0.0" minQ="0.0" maxQ="0.0"/>
                    <iidm:point p="0.30000001192092896" minQ="0.0" maxQ="0.0"/>
                </iidm:reactiveCapabilityCurve>
            </iidm:generator>
            <iidm:load id="DX" loadType="UNDEFINED" p0="30.71910285949707" q0="4.304048538208008" bus="DT" connectableBus="DT" p="30.71910285949707" q="4.304048538208008">
                <iidm:property name="VECTCodeOITransfoDistrib" value="CHATI-Y611"/>
                <iidm:property name="codeOI" value="CHATI-Y611"/>
            </iidm:load>
            <iidm:load id="DY" loadType="UNDEFINED" p0="37.271976470947266" q0="0.30404865741729736" bus="DT" connectableBus="DT" p="37.271976470947266" q="0.30404865741729736">
                <iidm:property name="codeOI" value="CHATI-Y612"/>
            </iidm:load>
            <iidm:load id="DZ" loadType="UNDEFINED" p0="30.77928924560547" q0="1.9623359441757202" bus="DU" connectableBus="DU" p="30.77928924560547" q="1.9623359441757202">
                <iidm:property name="codeOI" value="CHATI-Y613"/>
            </iidm:load>
            <iidm:shunt id="EA" sectionCount="0" voltageRegulatorOn="false" connectableBus="DT" q="-0.0">
                <iidm:property name="VECTCodeOITransfoDistrib" value="CHATI-Y611"/>
                <iidm:property name="qMax" value="3.33148"/>
                <iidm:property name="codeOI" value="CHATIINA"/>
                <iidm:shuntLinearModel bPerSection="-0.19751110672950745" maximumSectionCount="1"/>
            </iidm:shunt>
        </iidm:voltageLevel>
    </iidm:substation>
    <iidm:substation id="EB" country="FR" tso="C">
        <iidm:property name="paysCvg" value="FRANCE"/>
        <iidm:property name="regionCvg" value="PARIS"/>
        <iidm:voltageLevel id="EC" nominalV="225.0" lowVoltageLimit="220.0" highVoltageLimit="245.00001525878906" topologyKind="BUS_BREAKER">
            <iidm:busBreakerTopology>
                <iidm:bus id="ED" v="241.4522247314453" angle="-11.907867058442474"/>
            </iidm:busBreakerTopology>
            <iidm:generator id="EE" energySource="SOLAR" minP="0.0" maxP="0.8999999761581421" voltageRegulatorOn="false" targetP="0.4324599802494049" targetV="0.0" targetQ="0.0" bus="ED" connectableBus="ED" p="-0.4324599802494049" q="-0.0">
                <iidm:property name="genreCvg" value="PHOTOVOLTAIQUE"/>
                <iidm:property name="codeOI" value="CHEVIINF"/>
                <iidm:reactiveCapabilityCurve>
                    <iidm:point p="0.0" minQ="0.0" maxQ="0.0"/>
                    <iidm:point p="0.8999999761581421" minQ="0.0" maxQ="0.0"/>
                </iidm:reactiveCapabilityCurve>
            </iidm:generator>
            <iidm:generator id="EF" energySource="SOLAR" minP="0.0" maxP="0.8999999761581421" voltageRegulatorOn="false" targetP="0.4324599802494049" targetV="0.0" targetQ="0.0" bus="ED" connectableBus="ED" p="-0.4324599802494049" q="-0.0">
                <iidm:property name="genreCvg" value="PHOTOVOLTAIQUE"/>
                <iidm:property name="codeOI" value="CHEVIING"/>
                <iidm:reactiveCapabilityCurve>
                    <iidm:point p="0.0" minQ="0.0" maxQ="0.0"/>
                    <iidm:point p="0.8999999761581421" minQ="0.0" maxQ="0.0"/>
                </iidm:reactiveCapabilityCurve>
            </iidm:generator>
            <iidm:load id="EG" loadType="UNDEFINED" p0="26.4683780670166" q0="2.997168779373169" bus="ED" connectableBus="ED" p="26.4683780670166" q="2.997168779373169">
                <iidm:property name="codeOI" value="CHEVI-Y611"/>
            </iidm:load>
            <iidm:load id="EH" loadType="UNDEFINED" p0="26.4683780670166" q0="4.495753288269043" bus="ED" connectableBus="ED" p="26.4683780670166" q="4.495753288269043">
                <iidm:property name="VECTCodeOITransfoDistrib" value="CHEVI-Y612"/>
                <iidm:property name="codeOI" value="CHEVI-Y612"/>
            </iidm:load>
            <iidm:shunt id="EI" sectionCount="0" voltageRegulatorOn="false" connectableBus="ED" q="-0.0">
                <iidm:property name="qMax" value="80"/>
                <iidm:property name="codeOI" value="CHEVI-MC261"/>
                <iidm:shuntLinearModel bPerSection="0.0015802469570189714" maximumSectionCount="1"/>
            </iidm:shunt>
            <iidm:shunt id="EJ" sectionCount="0" voltageRegulatorOn="false" connectableBus="ED" q="-0.0">
                <iidm:property name="VECTCodeOITransfoDistrib" value="CHEVI-Y612"/>
                <iidm:property name="qMax" value="2.2491"/>
                <iidm:property name="codeOI" value="CHEVIINA"/>
                <iidm:shuntLinearModel bPerSection="-0.19751110672950745" maximumSectionCount="1"/>
            </iidm:shunt>
        </iidm:voltageLevel>
    </iidm:substation>
    <iidm:substation id="EK" country="FR" tso="C">
        <iidm:property name="paysCvg" value="FRANCE"/>
        <iidm:property name="regionCvg" value="PARIS"/>
        <iidm:voltageLevel id="EL" nominalV="225.0" lowVoltageLimit="220.0" highVoltageLimit="245.00001525878906" topologyKind="BUS_BREAKER">
            <iidm:busBreakerTopology>
                <iidm:bus id="EM" v="241.51931762695312" angle="-11.805022338788653"/>
            </iidm:busBreakerTopology>
            <iidm:load id="EN" loadType="UNDEFINED" p0="41.0" q0="6.642806529998779" bus="EM" connectableBus="EM" p="41.0" q="6.642806529998779">
                <iidm:property name="codeOI" value="CONVE-Y611"/>
            </iidm:load>
            <iidm:load id="EO" loadType="UNDEFINED" p0="20.0" q0="-0.33929842710494995" bus="EM" connectableBus="EM" p="20.0" q="-0.33929842710494995">
                <iidm:property name="codeOI" value="CONVE-Y612"/>
            </iidm:load>
            <iidm:load id="EP" loadType="FICTITIOUS" p0="11.317696571350098" q0="-4.880696773529053" bus="EM" connectableBus="EM" p="11.317696571350098" q="-4.880696773529053"/>
        </iidm:voltageLevel>
    </iidm:substation>
    <iidm:substation id="EQ" country="FR" tso="C">
        <iidm:property name="paysCvg" value="FRANCE"/>
        <iidm:property name="regionCvg" value="PARIS"/>
        <iidm:voltageLevel id="ER" nominalV="225.0" lowVoltageLimit="220.0" highVoltageLimit="245.00001525878906" topologyKind="BUS_BREAKER">
            <iidm:busBreakerTopology>
                <iidm:bus id="ES" v="241.54519653320312" angle="-12.027703581203994"/>
                <iidm:bus id="ET" v="243.0859832763672" angle="-10.506100504891586"/>
            </iidm:busBreakerTopology>
            <iidm:load id="EU" loadType="UNDEFINED" p0="52.6739501953125" q0="1.3043581247329712" bus="ES" connectableBus="ES" p="52.6739501953125" q="1.3043581247329712">
                <iidm:property name="codeOI" value="CORIO-Y611"/>
            </iidm:load>
            <iidm:load id="EV" loadType="FICTITIOUS" p0="11.674749374389648" q0="-6.088018417358398" bus="ES" connectableBus="ES" p="11.674749374389648" q="-6.088018417358398"/>
            <iidm:load id="EW" loadType="UNDEFINED" p0="0.0" q0="0.0" connectableBus="ET" p="0.0" q="0.0">
                <iidm:property name="codeOI" value="CORIO-Y612"/>
            </iidm:load>
            <iidm:load id="EX" loadType="FICTITIOUS" p0="-55.30059051513672" q0="-1.923458218574524" bus="ET" connectableBus="ET" p="-55.30059051513672" q="-1.923458218574524"/>
            <iidm:load id="EY" loadType="FICTITIOUS" p0="55.30059051513672" q0="1.923458218574524" bus="ET" connectableBus="ET" p="55.30059051513672" q="1.923458218574524"/>
        </iidm:voltageLevel>
    </iidm:substation>
    <iidm:substation id="EZ" country="FR" tso="C">
        <iidm:property name="paysCvg" value="FRANCE"/>
        <iidm:property name="regionCvg" value="PARIS"/>
        <iidm:voltageLevel id="FA" nominalV="225.0" lowVoltageLimit="220.0" highVoltageLimit="245.00001525878906" topologyKind="BUS_BREAKER">
            <iidm:busBreakerTopology>
                <iidm:bus id="FB" v="241.42462158203125" angle="-11.964913652164066"/>
            </iidm:busBreakerTopology>
            <iidm:generator id="FC" energySource="SOLAR" minP="0.0" maxP="0.20000000298023224" voltageRegulatorOn="false" targetP="0.0926700010895729" targetV="0.0" targetQ="0.0" bus="FB" connectableBus="FB" p="-0.0926700010895729" q="-0.0">
                <iidm:property name="genreCvg" value="PHOTOVOLTAIQUE"/>
                <iidm:property name="codeOI" value="CRETAINF"/>
                <iidm:reactiveCapabilityCurve>
                    <iidm:point p="0.0" minQ="0.0" maxQ="0.0"/>
                    <iidm:point p="0.20000000298023224" minQ="0.0" maxQ="0.0"/>
                </iidm:reactiveCapabilityCurve>
            </iidm:generator>
            <iidm:generator id="FD" energySource="SOLAR" minP="0.0" maxP="0.20000000298023224" voltageRegulatorOn="true" targetP="0.0926700010895729" targetV="241.42724609375" targetQ="0.0" bus="FB" connectableBus="FB" p="-0.0926700010895729" q="-0.0">
                <iidm:property name="genreCvg" value="PHOTOVOLTAIQUE"/>
                <iidm:property name="codeOI" value="CRETAING"/>
                <iidm:reactiveCapabilityCurve>
                    <iidm:point p="0.0" minQ="0.0" maxQ="0.0"/>
                    <iidm:point p="0.20000000298023224" minQ="0.0" maxQ="0.0"/>
                </iidm:reactiveCapabilityCurve>
            </iidm:generator>
            <iidm:load id="FE" loadType="UNDEFINED" p0="51.97764587402344" q0="8.56998348236084" bus="FB" connectableBus="FB" p="51.97764587402344" q="8.56998348236084">
                <iidm:property name="VECTCodeOITransfoDistrib" value="CRETA-Y611"/>
                <iidm:property name="codeOI" value="CRETA-Y611"/>
            </iidm:load>
            <iidm:load id="FF" loadType="UNDEFINED" p0="0.0926700010895729" q0="0.0" connectableBus="FB" p="0.0" q="0.0">
                <iidm:property name="codeOI" value="CRETA-Y612"/>
            </iidm:load>
            <iidm:load id="FG" loadType="FICTITIOUS" p0="16.442834854125977" q0="-14.19393253326416" bus="FB" connectableBus="FB" p="16.442834854125977" q="-14.19393253326416"/>
            <iidm:load id="FH" loadType="FICTITIOUS" p0="14.884973526000977" q0="-10.429749488830566" bus="FB" connectableBus="FB" p="14.884973526000977" q="-10.429749488830566"/>
            <iidm:load id="FI" loadType="FICTITIOUS" p0="112.17952728271484" q0="-6.6715264320373535" bus="FB" connectableBus="FB" p="112.17952728271484" q="-6.6715264320373535"/>
            <iidm:shunt id="FJ" sectionCount="0" voltageRegulatorOn="false" connectableBus="FB" q="-0.0">
                <iidm:property name="qMax" value="80"/>
                <iidm:property name="codeOI" value="CRETA-MC261"/>
                <iidm:shuntLinearModel bPerSection="0.0015802469570189714" maximumSectionCount="1"/>
            </iidm:shunt>
            <iidm:shunt id="FK" sectionCount="0" voltageRegulatorOn="false" connectableBus="FB" q="-0.0">
                <iidm:property name="VECTCodeOITransfoDistrib" value="PERCY-Y411"/>
                <iidm:property name="qMax" value="13.498"/>
                <iidm:property name="codeOI" value="CRETAINA"/>
                <iidm:shuntLinearModel bPerSection="-0.19751110672950745" maximumSectionCount="1"/>
            </iidm:shunt>
        </iidm:voltageLevel>
    </iidm:substation>
    <iidm:substation id="FL" country="FR" tso="C">
        <iidm:property name="paysCvg" value="FRANCE"/>
        <iidm:property name="regionCvg" value="PARIS"/>
        <iidm:voltageLevel id="FM" nominalV="225.0" lowVoltageLimit="220.0" highVoltageLimit="245.00001525878906" topologyKind="BUS_BREAKER">
            <iidm:busBreakerTopology>
                <iidm:bus id="FN" v="241.50006103515625" angle="-12.593066513336275"/>
                <iidm:bus id="FO" v="241.1468963623047" angle="-12.903609601687368"/>
            </iidm:busBreakerTopology>
            <iidm:load id="FP" loadType="UNDEFINED" p0="37.95734786987305" q0="2.947357177734375" bus="FN" connectableBus="FN" p="37.95734786987305" q="2.947357177734375">
                <iidm:property name="codeOI" value="ELANC-Y611"/>
            </iidm:load>
            <iidm:load id="FQ" loadType="FICTITIOUS" p0="-65.29196166992188" q0="11.882205963134766" bus="FN" connectableBus="FN" p="-65.29196166992188" q="11.882205963134766"/>
            <iidm:load id="FR" loadType="FICTITIOUS" p0="85.3123550415039" q0="-21.16660499572754" bus="FN" connectableBus="FN" p="85.3123550415039" q="-21.16660499572754"/>
            <iidm:load id="FS" loadType="FICTITIOUS" p0="-264.184326171875" q0="39.64157485961914" bus="FN" connectableBus="FN" p="-264.184326171875" q="39.64157485961914"/>
            <iidm:load id="FT" loadType="FICTITIOUS" p0="85.54478454589844" q0="-21.187835693359375" bus="FN" connectableBus="FN" p="85.54478454589844" q="-21.187835693359375"/>
            <iidm:load id="FU" loadType="FICTITIOUS" p0="50.38531494140625" q0="2.078181266784668" bus="FN" connectableBus="FN" p="50.38531494140625" q="2.078181266784668"/>
            <iidm:load id="FV" loadType="FICTITIOUS" p0="50.797393798828125" q0="-5.1686835289001465" bus="FN" connectableBus="FN" p="50.797393798828125" q="-5.1686835289001465"/>
            <iidm:load id="FW" loadType="UNDEFINED" p0="0.0" q0="0.0" connectableBus="FO" p="0.0" q="0.0">
                <iidm:property name="codeOI" value="ELANC-Y612"/>
            </iidm:load>
            <iidm:load id="FX" loadType="FICTITIOUS" p0="-69.6495361328125" q0="5.288495063781738" bus="FO" connectableBus="FO" p="-69.6495361328125" q="5.288495063781738"/>
            <iidm:load id="FY" loadType="FICTITIOUS" p0="47.06483840942383" q0="15.607455253601074" bus="FO" connectableBus="FO" p="47.06483840942383" q="15.607455253601074"/>
        </iidm:voltageLevel>
    </iidm:substation>
    <iidm:substation id="FZ" country="FR" tso="C">
        <iidm:property name="paysCvg" value="FRANCE"/>
        <iidm:property name="regionCvg" value="PARIS"/>
        <iidm:voltageLevel id="GA" nominalV="225.0" lowVoltageLimit="220.0" highVoltageLimit="245.00001525878906" topologyKind="BUS_BREAKER">
            <iidm:busBreakerTopology>
                <iidm:bus id="GB" v="241.28900146484375" angle="-8.508741455715588"/>
            </iidm:busBreakerTopology>
            <iidm:load id="GC" loadType="UNDEFINED" p0="23.35723876953125" q0="0.15763840079307556" bus="GB" connectableBus="GB" p="23.35723876953125" q="0.15763840079307556">
                <iidm:property name="codeOI" value="LIERS-Y611"/>
            </iidm:load>
            <iidm:load id="GD" loadType="UNDEFINED" p0="0.0" q0="0.0" connectableBus="GB" p="0.0" q="0.0">
                <iidm:property name="codeOI" value="LIERS-Y612"/>
            </iidm:load>
...